vdd VDD 0 dc 2.5
vblb BLB 0 pwl 0n 0 10n 0 10.001n 2.5 20n 2.5 20.001n 0 30n 0 30.001n 2.5 40n 2.5 40.001n 0 50n 0 50.001n 2.5 60n 2.5 60.001n 0 70n 0 70.001n 2.5 80n 2.5 80.001n 0 90n 0 90.001n 2.5 100n 2.5
vbl BL 0 pwl 0n 2.5 10n 2.5 10.001n 0 20n 0 20.001n 2.5 30n 2.5 30.001n 0 40n 0 40.001n 2.5 50n 2.5 50.001n 0 60n 0 60.001n 2.5 70n 2.5 70.001n 0 80n 0 80.001n 2.5 90n 2.5 90.001n 0 100n 0
vrd RD 0 pwl 0n 0 30n 0 30.001n 2.5 40n 2.5 40.001n 0 60n 0 60.001n 2.5 100n 2.5
vwl WL 0 pwl 0n 2.5 20n 2.5 20.001n 0 40n 0 40.001n 2.5 60n 2.5 60.001n 0 100n 0
vcam cam_data 0 pwl 0n 2.5 100n 2.5
cload out 0 200fF
.tran 100n
.include D:\IC_tools\C5_model.txt.txt