vdd VDD 0 dc 1.3
vin Din 0 pulse 1.3 0 1p 1p 1p 300n 600n
cload out 0 200fF
.tran 1200n
.include D:\IC_tools\C5_model.txt.txt